7 
Rotation around Z by 180 degrees.
C12         -0.000000000      -0.012671373      -0.724570343      -0.314000000 
H24         -0.000000000      -1.059241607      -1.053179598       0.072000000 
H25          0.885500000       0.472528320      -1.155540689       0.072000000 
H26*        -0.885500000       0.472528320      -1.155540689       0.072000000 
C11/         0.000000000       0.094399716       0.804309580       0.184000000 
H22         -0.879500000      -0.429879997       1.207009954      -0.030000000 
H23          0.879500000      -0.429879997       1.207009954      -0.030000000 
