11
ORTE atoms with aligned coordinates - marks: * for x and + for y ref atoms 
C7         -0.000000000       -1.447954974        0.000000000	   0.066000 
C8          1.215500000       -0.725454974        0.000000000	  -0.162000 
C9          1.204000000        0.666045026        0.000000000	  -0.109000 
C10        -0.000000000        1.368045026        0.000000000	  -0.154000 
C11        -1.204000000        0.666045026        0.000000000	  -0.109000 
C12        -1.215500000       -0.725454974        0.000000000	  -0.162000 
H9*         2.176500000       -1.261954974        0.000000000	   0.145000 
H10         2.158500000        1.212545026        0.000000000	   0.132000 
H11+       -0.000000000        2.467055026        0.000000000	   0.132000 
H12        -2.158500000        1.212545026        0.000000000	   0.132000 
H13        -2.176500000       -1.261954974        0.000000000	   0.145000 
11
ORTE atoms with aligned coordinates biaxial - marks: * for x and + for y ref atoms 
C29        -0.000000000       -1.447817207        0.000000000 
C30         1.215500000       -0.725317207        0.000000000 
C31         1.204000000        0.665692793        0.000000000 
C32        -0.000000000        1.368192793        0.000000000 
C33        -1.204000000        0.665692793        0.000000000 
C34        -1.215500000       -0.725317207        0.000000000 
H14*        2.177000000       -1.261317207        0.000000000 
H15         2.159000000        1.212692793        0.000000000 
H16+       -0.000000000        2.467192793        0.000000000 
H17        -2.159000000        1.212692793        0.000000000 
H18        -2.177000000       -1.261317207        0.000000000 
