7
N57 
C3         -0.000000000       -0.091927640       -0.807310319     0.074
H6         -0.881750000        0.418643338       -1.201639053    -0.008
H7          0.881750000        0.418643338       -1.201639053    -0.008
C4          0.000000000        0.011468549        0.729099937     -0.22
H8          0.000000000        1.059697783        1.037822537     0.054
H9          0.886590000       -0.469082492        1.148738745     0.054
H10        -0.886590000       -0.469082492        1.148738745     0.054
